# generated using pymatgen
data_U16H
_symmetry_space_group_name_H-M   P1
_cell_length_a   5.29004786
_cell_length_b   6.06400215
_cell_length_c   10.02308711
_cell_angle_alpha   72.64213404
_cell_angle_beta   82.49748524
_cell_angle_gamma   64.11798386
_symmetry_Int_Tables_number   1
_chemical_formula_structural   U16H
_chemical_formula_sum   'U16 H1'
_cell_volume   276.10442634
_cell_formula_units_Z   1
loop_
 _symmetry_equiv_pos_site_id
 _symmetry_equiv_pos_as_xyz
  1  'x, y, z'
loop_
 _atom_site_type_symbol
 _atom_site_label
 _atom_site_symmetry_multiplicity
 _atom_site_fract_x
 _atom_site_fract_y
 _atom_site_fract_z
 _atom_site_occupancy
  U  U0  1  0.02773400  0.87888100  0.63140300  1.0
  U  U1  1  0.02882200  0.12567500  0.13095100  1.0
  U  U2  1  0.02988200  0.62220700  0.13555400  1.0
  U  U3  1  0.03410400  0.38098800  0.62572900  1.0
  U  U4  1  0.42094800  0.45696300  0.88480200  1.0
  U  U5  1  0.42638400  0.95686100  0.88022700  1.0
  U  U6  1  0.42693200  0.70547700  0.37956500  1.0
  U  U7  1  0.42953100  0.20071000  0.38074300  1.0
  U  U8  1  0.52199000  0.38114400  0.62498800  1.0
  U  U9  1  0.52864300  0.62642300  0.13140200  1.0
  U  U10  1  0.52900800  0.87553200  0.63171500  1.0
  U  U11  1  0.53018200  0.12532500  0.13090000  1.0
  U  U12  1  0.92664500  0.70600400  0.38129400  1.0
  U  U13  1  0.92773300  0.20304700  0.38100800  1.0
  U  U14  1  0.92999100  0.45678900  0.88478400  1.0
  U  U15  1  0.93898200  0.92780400  0.88814900  1.0
  H  H16  1  0.78725300  0.28259900  0.78458400  1.0
